CRYSTAL
PRIMVEC
   4.6496981   0.0000000   0.0000000
   0.0000000   4.6496981   0.0000000
   0.0000000   0.0000000   3.0835989
CONVVEC
   4.6496981   0.0000000   0.0000000
   0.0000000   4.6496981   0.0000000
   0.0000000   0.0000000   3.0835989
PRIMCOORD
     2  1
Ni      0.0000000   0.0000000   0.0000000
Ni      2.3248491   2.3248491   1.5417995
