CRYSTAL
PRIMVEC
   5.1385999   0.0000000   0.0000000
  -2.5692999   4.4501580   0.0000000
   0.0000000   0.0000000  14.2856998
CONVVEC
   5.1385999   0.0000000   0.0000000
  -2.5692999   4.4501580   0.0000000
   0.0000000   0.0000000  14.2856998
PRIMCOORD
     6  1
Mn      0.0000000   0.0000000   5.1457091
Mn      0.0000000   0.0000000   9.1399908
Mn      2.5693002   1.4833859   9.9076086
Mn      2.5693002   1.4833859  13.9018902
Mn     -0.0000003   2.9667722   0.3838096
Mn     -0.0000003   2.9667722   4.3780913
