CRYSTAL
PRIMVEC
   4.5710000   0.0000000   0.0000000
   0.0000000   4.5710000   0.0000000
   0.0000000   0.0000000   8.8529998
CONVVEC
   4.5710000   0.0000000   0.0000000
   0.0000000   4.5710000   0.0000000
   0.0000000   0.0000000   8.8529998
PRIMCOORD
     4  1
Cr      0.0000000   0.0000000   2.9480489
Cr      2.2855000   2.2855000   7.3745489
Cr      2.2855000   2.2855000   1.4784510
Cr      0.0000000   0.0000000   5.9049509
