CRYSTAL
PRIMVEC
   3.8640001   0.0000000   0.0000000
   0.0000000   3.8640001   0.0000000
   0.0000000   0.0000000   3.8640001
CONVVEC
   3.8640001   0.0000000   0.0000000
   0.0000000   3.8640001   0.0000000
   0.0000000   0.0000000   3.8640001
PRIMCOORD
     1  1
Fe      0.0000000   0.0000000   0.0000000
