CRYSTAL
PRIMVEC
   4.5285001   0.0000000   0.0000000
  -2.2642500   3.9217961   0.0000000
   0.0000000   0.0000000   7.4453001
CONVVEC
   4.5285001   0.0000000   0.0000000
  -2.2642500   3.9217961   0.0000000
   0.0000000   0.0000000   7.4453001
PRIMCOORD
     2  1
Mn     -0.0002264   2.6146615   4.5818377
Mn      2.2640236   1.3071346   2.8634624
