CRYSTAL
PRIMVEC
   5.4995000   0.0000000   0.0000000
   0.0000000   5.4995000   0.0000000
   0.0000000   0.0000000  12.5051997
CONVVEC
   5.4995000   0.0000000   0.0000000
   0.0000000   5.4995000   0.0000000
   0.0000000   0.0000000  12.5051997
PRIMCOORD
     4  1
Ni      0.0000000   0.0000000   0.0000000
Ni      2.7497500   0.0000000   6.2525998
Ni      2.7497500   2.7497500   0.0000000
Ni      0.0000000   2.7497500   6.2525998
