CRYSTAL
PRIMVEC
   5.2359029  -3.0229500   0.0000000
   0.0000000   6.0459000   0.0000000
   0.0000000   0.0000000  11.4073999
CONVVEC
   5.2359029  -3.0229500   0.0000000
   0.0000000   6.0459000   0.0000000
   0.0000000   0.0000000  11.4073999
PRIMCOORD
     6  1
Mn      1.7749711  -1.0247800   0.0000000
Mn      3.4609318  -1.9981699   5.7036999
Mn      0.0000000   3.9963399   5.7036999
Mn      1.7749711   1.0247800   5.7036999
Mn      0.0000000   2.0495601   0.0000000
Mn      3.4609318   1.9981700   0.0000000
