CRYSTAL
PRIMVEC
   4.1710000   2.0855000   2.0855000
   2.0855000   4.1710000   2.0855000
   2.0855000   2.0855000   4.1710000
CONVVEC
   4.1710000   2.0855000   2.0855000
   2.0855000   4.1710000   2.0855000
   2.0855000   2.0855000   4.1710000
PRIMCOORD
     2  1
Ni      0.0000000   0.0000000   0.0000000
Ni      4.1710000   4.1710000   4.1710000
