CRYSTAL
PRIMVEC
   5.3259998   0.0000000   0.0000000
   0.0000000   5.6020000   0.0000000
   0.0000000   0.0000000   7.6349997
CONVVEC
   5.3259998   0.0000000   0.0000000
   0.0000000   5.6020000   0.0000000
   0.0000000   0.0000000   7.6349997
PRIMCOORD
     4  1
Fe      0.0000000   2.8010000   0.0000000
Fe      0.0000000   2.8010000   3.8174998
Fe      2.6629999   0.0000000   3.8174998
Fe      2.6629999   0.0000000   0.0000000
