CRYSTAL
PRIMVEC
   2.9710000   1.7153076   5.7776667
  -2.9710000   1.7153076   5.7776667
   0.0000000  -3.4306152   5.7776667
CONVVEC
   2.9710000   1.7153076   5.7776667
  -2.9710000   1.7153076   5.7776667
   0.0000000  -3.4306152   5.7776667
PRIMCOORD
     2  1
Cr      0.0000000  -0.0000000  11.5732442
Cr      0.0000000  -0.0000000   5.7597560
