CRYSTAL
PRIMVEC
   4.5800002   0.0000000   0.0000000
   0.0000000   4.5800002   0.0000000
   2.2900001   2.2900001  11.5650006
CONVVEC
   4.5800002   0.0000000   0.0000000
   0.0000000   4.5800002   0.0000000
   2.2900001   2.2900001  11.5650006
PRIMCOORD
     2  1
Mn      4.5800002   2.2900001   5.7825003
Mn      2.2900001   4.5800002   5.7825003
