CRYSTAL
PRIMVEC
   2.0801931   0.0000000   5.8453331
  -1.0400964   1.8015000   5.8453331
  -1.0400964  -1.8015000   5.8453331
CONVVEC
   2.0801931   0.0000000   5.8453331
  -1.0400964   1.8015000   5.8453331
  -1.0400964  -1.8015000   5.8453331
PRIMCOORD
     1  1
Fe      0.0000000   0.0000000   0.0000000
