CRYSTAL
PRIMVEC
   3.7239081  -2.1499994   0.0000000
   0.0000000   4.2999987   0.0000000
   0.0000000   0.0000000   6.1199981
CONVVEC
   3.7239081  -2.1499994   0.0000000
   0.0000000   4.2999987   0.0000000
   0.0000000   0.0000000   6.1199981
PRIMCOORD
     2  1
Mn      0.0000000   0.0000000   0.0000000
Mn      0.0000000   0.0000000   3.0599991
