CRYSTAL
PRIMVEC
   6.0762181   0.0000000   0.0000000
   0.0000000  10.5146074   0.0000000
  -2.0006913   0.0000000   6.7631521
CONVVEC
   6.0762181   0.0000000   0.0000000
   0.0000000  10.5146074   0.0000000
  -2.0006913   0.0000000   6.7631521
PRIMCOORD
     4  1
Mn      0.0000000   3.5037711   0.0000000
Mn      0.0000000   7.0108374   0.0000000
Mn      3.0381091   8.7610737   0.0000000
Mn      3.0381091   1.7535326   0.0000000
