CRYSTAL
PRIMVEC
   5.4879999   0.0000000   0.0000000
   0.0000000  12.5480003   0.0000000
   0.0000000   0.0000000   5.4899998
CONVVEC
   5.4879999   0.0000000   0.0000000
   0.0000000  12.5480003   0.0000000
   0.0000000   0.0000000   5.4899998
PRIMCOORD
     4  1
Co      0.0000000   0.0000000   0.0000000
Co      2.7440000   0.0000000   2.7449999
Co      2.7440000   6.2740002   0.0000000
Co      0.0000000   6.2740002   2.7449999
