CRYSTAL
PRIMVEC
   2.5719500   2.5719500   0.0000000
   2.5719500   0.0000000   2.5719500
   0.0000000   2.5719500   2.5719500
CONVVEC
   2.5719500   2.5719500   0.0000000
   2.5719500   0.0000000   2.5719500
   0.0000000   2.5719500   2.5719500
PRIMCOORD
     1  1
Eu      0.0000000   0.0000000   0.0000000
