CRYSTAL
PRIMVEC
   2.1545000   1.2439012  13.5596670
  -2.1545000   1.2439012  13.5596670
   0.0000000  -2.4878023  13.5596670
CONVVEC
   2.1545000   1.2439012  13.5596670
  -2.1545000   1.2439012  13.5596670
   0.0000000  -2.4878023  13.5596670
PRIMCOORD
     1  1
Mn      0.0000000   0.0000000   0.0000000
