CRYSTAL
PRIMVEC
   5.2820979   0.0000000   0.0000000
   0.0000000   5.5891647   0.0000000
   0.0000000   0.0000000   7.5509544
CONVVEC
   5.2820979   0.0000000   0.0000000
   0.0000000   5.5891647   0.0000000
   0.0000000   0.0000000   7.5509544
PRIMCOORD
     4  1
V       2.6410489   0.0000000   0.0000000
V       0.0000000   2.7945824   3.7754772
V       2.6410489   0.0000000   3.7754772
V       0.0000000   2.7945824   0.0000000
