CRYSTAL
PRIMVEC
   5.2289600   3.0189415   2.1139803
  -5.2289600   3.0189415   2.1139803
   0.0000000  -6.0378830   2.1139803
CONVVEC
   5.2289600   3.0189415   2.1139803
  -5.2289600   3.0189415   2.1139803
   0.0000000  -6.0378830   2.1139803
PRIMCOORD
     7  1
Mn      0.0000000   3.0189415   2.1139803
Mn     -2.6144800  -1.5094707   2.1139803
Mn      2.6144800  -1.5094707   2.1139803
Mn     -2.6144800   1.5094707   1.0569901
Mn      0.0000000  -3.0189415   1.0569901
Mn      2.6144800   1.5094707   1.0569901
Mn      0.0000000   0.0000000   3.1709704
