CRYSTAL
PRIMVEC
   4.3879982   0.0000000   0.0000000
   0.0000000   4.3879982   0.0000000
   0.0000000   0.0000000   2.8657740
CONVVEC
   4.3879982   0.0000000   0.0000000
   0.0000000   4.3879982   0.0000000
   0.0000000   0.0000000   2.8657740
PRIMCOORD
     2  1
Mn      0.0000000   0.0000000   0.0000000
Mn      2.1939991   2.1939991   1.4328870
