CRYSTAL
PRIMVEC
   4.5460000   0.0000000   0.0000000
   0.0000000   4.5460000   0.0000000
   0.0000000   0.0000000   9.0140002
CONVVEC
   4.5460000   0.0000000   0.0000000
   0.0000000   4.5460000   0.0000000
   0.0000000   0.0000000   9.0140002
PRIMCOORD
     4  1
Cr      0.0000000   0.0000000   3.0151831
Cr      2.2730000   2.2730000   7.5221832
Cr      2.2730000   2.2730000   1.4918170
Cr      0.0000000   0.0000000   5.9988171
