CRYSTAL
PRIMVEC
   3.2504815   0.0000000   4.6657129
  -1.6252405   2.8149994   4.6657129
  -1.6252405  -2.8149994   4.6657129
CONVVEC
   3.2504815   0.0000000   4.6657129
  -1.6252405   2.8149994   4.6657129
  -1.6252405  -2.8149994   4.6657129
PRIMCOORD
     2  1
Fe      0.0000001   0.0000000   3.0946274
Fe      0.0000004   0.0000000  10.0931966
