CRYSTAL
PRIMVEC
   5.4213210  -3.1300012   0.0000000
   0.0000000   6.2600023   0.0000000
   0.0000000   0.0000000  18.2000065
CONVVEC
   5.4213210  -3.1300012   0.0000000
   0.0000000   6.2600023   0.0000000
   0.0000000   0.0000000  18.2000065
PRIMCOORD
     6  1
Cr      0.0000000   0.0000000   0.0000000
Cr      0.0000000   0.0000000  12.1333383
Cr      1.8071068   3.1300015   6.0666682
Cr      1.8071068   3.1300015   0.0000000
Cr      3.6142142  -0.0000003  12.1333383
Cr      3.6142142  -0.0000003   6.0666682
