CRYSTAL
PRIMVEC
   3.1310000   1.8076837   6.6016668
  -3.1310000   1.8076837   6.6016668
   0.0000000  -3.6153674   6.6016668
CONVVEC
   3.1310000   1.8076837   6.6016668
  -3.1310000   1.8076837   6.6016668
   0.0000000  -3.6153674   6.6016668
PRIMCOORD
     2  1
Fe      0.0000000   0.0000000  16.5074678
Fe      0.0000000   0.0000000   3.2975326
