CRYSTAL
PRIMVEC
   0.0000000   4.0320001   4.0320001
   4.0320001   0.0000000   4.0320001
   4.0320001   4.0320001   0.0000000
CONVVEC
   0.0000000   4.0320001   4.0320001
   4.0320001   0.0000000   4.0320001
   4.0320001   4.0320001   0.0000000
PRIMCOORD
     1  1
Ni      4.0320001   4.0320001   4.0320001
