CRYSTAL
PRIMVEC
   5.2780000   0.0000000   0.0000000
   0.0000000   5.5910002   0.0000000
   0.0000000   0.0000000   7.6020000
CONVVEC
   5.2780000   0.0000000   0.0000000
   0.0000000   5.5910002   0.0000000
   0.0000000   0.0000000   7.6020000
PRIMCOORD
     4  1
Fe      0.0000000   2.7955001   0.0000000
Fe      0.0000000   2.7955001   3.8010000
Fe      2.6390000   0.0000000   3.8010000
Fe      2.6390000   0.0000000   0.0000000
