CRYSTAL
PRIMVEC
  10.3319999   0.0000000   0.0000000
   0.0000000   6.0100004   0.0000000
   0.0000000   0.0000000   4.6919998
CONVVEC
  10.3319999   0.0000000   0.0000000
   0.0000000   6.0100004   0.0000000
   0.0000000   0.0000000   4.6919998
PRIMCOORD
     4  1
Fe      2.9158970   1.5025001   4.5733861
Fe      2.2501029   4.5075003   2.2273862
Fe      7.4161029   4.5075003   0.1186138
Fe      8.0818970   1.5025001   2.4646137
