CRYSTAL
PRIMVEC
   5.2510000   0.0000000   0.0000000
   0.0000000   5.5760001   0.0000000
   0.0000000   0.0000000   7.5839998
CONVVEC
   5.2510000   0.0000000   0.0000000
   0.0000000   5.5760001   0.0000000
   0.0000000   0.0000000   7.5839998
PRIMCOORD
     4  1
Fe      0.0000000   2.7880001   0.0000000
Fe      0.0000000   2.7880001   3.7919999
Fe      2.6255000   0.0000000   3.7919999
Fe      2.6255000   0.0000000   0.0000000
