CRYSTAL
PRIMVEC
   5.8604000   0.0000000   0.0000000
   0.0000000   5.8604000   0.0000000
   2.9302000   2.9302000   3.9264000
CONVVEC
   5.8604000   0.0000000   0.0000000
   0.0000000   5.8604000   0.0000000
   2.9302000   2.9302000   3.9264000
PRIMCOORD
     2  1
Cu      0.0000000   2.9302000   0.0000000
Cu      2.9302000   0.0000000   0.0000000
