CRYSTAL
PRIMVEC
   6.0830000   0.0000000   0.0000000
   0.0000000   6.0830000   0.0000000
   0.0000000   0.0000000   6.0830000
CONVVEC
   6.0830000   0.0000000   0.0000000
   0.0000000   6.0830000   0.0000000
   0.0000000   0.0000000   6.0830000
PRIMCOORD
     4  1
Mn      0.0000000   0.0000000   0.0000000
Mn      0.0000000   3.0415000   3.0415000
Mn      3.0415000   0.0000000   3.0415000
Mn      3.0415000   3.0415000   0.0000000
