CRYSTAL
PRIMVEC
   5.5367000   0.0000000   0.0000000
   0.0000000   5.7473000   0.0000000
   0.0000000   0.0000000   7.6929002
CONVVEC
   5.5367000   0.0000000   0.0000000
   0.0000000   5.7473000   0.0000000
   0.0000000   0.0000000   7.6929002
PRIMCOORD
     4  1
Mn      2.7683500   0.0000000   0.0000000
Mn      2.7683500   0.0000000   3.8464501
Mn      0.0000000   2.8736500   3.8464501
Mn      0.0000000   2.8736500   0.0000000
