CRYSTAL
PRIMVEC
   8.5018997   0.0000000   0.0000000
   0.0000000   8.5018997   0.0000000
   0.0000000   0.0000000   5.8196001
CONVVEC
   8.5018997   0.0000000   0.0000000
   0.0000000   8.5018997   0.0000000
   0.0000000   0.0000000   5.8196001
PRIMCOORD
     4  1
Cu      2.1254749   2.1254749   5.3598517
Cu      6.3764248   6.3764248   3.3695485
Cu      6.3764248   6.3764248   0.4597484
Cu      2.1254749   2.1254749   2.4500516
