CRYSTAL
PRIMVEC
   5.2199977   2.6099989   2.6099989
   2.6099989   5.2199977   2.6099989
   2.6099989   2.6099989   5.2199977
CONVVEC
   5.2199977   2.6099989   2.6099989
   2.6099989   5.2199977   2.6099989
   2.6099989   2.6099989   5.2199977
PRIMCOORD
     2  1
Mn      0.0000000   0.0000000   0.0000000
Mn      5.2199977   5.2199977   5.2199977
