CRYSTAL
PRIMVEC
   4.3159133   2.1622639   2.1622639
   2.1622639   4.3159133   2.1622639
   2.1622639   2.1622639   4.3159133
CONVVEC
   4.3159133   2.1622639   2.1622639
   2.1622639   4.3159133   2.1622639
   2.1622639   2.1622639   4.3159133
PRIMCOORD
     2  1
Fe      0.0000000   0.0000000   0.0000000
Fe      4.3202206   4.3202206   4.3202206
