CRYSTAL
PRIMVEC
   5.9299998   0.0000000   0.0000000
   0.0000000  10.2799997   0.0000000
  -1.9826763   0.0000000   6.4208560
CONVVEC
   5.9299998   0.0000000   0.0000000
   0.0000000  10.2799997   0.0000000
  -1.9826763   0.0000000   6.4208560
PRIMCOORD
     4  1
Fe      0.0000000   3.4232399   0.0000000
Fe      0.0000000   6.8567598   0.0000000
Fe      2.9649999   8.5632398   0.0000000
Fe      2.9649999   1.7167600   0.0000000
