CRYSTAL
PRIMVEC
   4.8225999   0.0000000   0.0000000
   0.0000000   5.7533002   0.0000000
  -0.0936605   0.0000000   4.9914204
CONVVEC
   4.8225999   0.0000000   0.0000000
   0.0000000   5.7533002   0.0000000
  -0.0936605   0.0000000   4.9914204
PRIMCOORD
     2  1
Mn      2.3878848   3.9427366   1.2478551
Mn      2.3410545   1.8105636   3.7435653
