CRYSTAL
PRIMVEC
   6.6210002   0.0000000   0.0000000
   0.0000000   5.9569999   0.0000000
   0.0000000   0.0000000   3.4800003
CONVVEC
   6.6210002   0.0000000   0.0000000
   0.0000000   5.9569999   0.0000000
   0.0000000   0.0000000   3.4800003
PRIMCOORD
     2  1
Cr      0.0000000   0.0000000   0.0000000
Cr      3.3105001   2.9784999   1.7400002
