CRYSTAL
PRIMVEC
   3.4335062   1.9823358   6.6023453
  -3.4335064   1.9823357   6.6023452
  -0.0000001  -3.9646715   6.6023453
CONVVEC
   3.4335062   1.9823358   6.6023453
  -3.4335064   1.9823357   6.6023452
  -0.0000001  -3.9646715   6.6023453
PRIMCOORD
     2  1
Cr     -0.0000001  -0.0000000   6.6098059
Cr     -0.0000002  -0.0000000  13.1972299
