CRYSTAL
PRIMVEC
   4.2324719   0.0000000   0.0000000
   0.0000000   4.2324719   0.0000000
   0.0000000   0.0000000   4.2324719
CONVVEC
   4.2324719   0.0000000   0.0000000
   0.0000000   4.2324719   0.0000000
   0.0000000   0.0000000   4.2324719
PRIMCOORD
     1  1
Mn      2.1162360   2.1162360   2.1162360
