CRYSTAL
PRIMVEC
   2.9785001   2.9785001   0.0000000
   2.9785001   0.0000000   2.9785001
   0.0000000   2.9785001   2.9785001
CONVVEC
   2.9785001   2.9785001   0.0000000
   2.9785001   0.0000000   2.9785001
   0.0000000   2.9785001   2.9785001
PRIMCOORD
     1  1
Eu      0.0000000   0.0000000   0.0000000
