CRYSTAL
PRIMVEC
   2.9069576   0.0000000   4.5878876
  -1.4534785   2.5174990   4.5878876
  -1.4534785  -2.5174990   4.5878876
CONVVEC
   2.9069576   0.0000000   4.5878876
  -1.4534785   2.5174990   4.5878876
  -1.4534785  -2.5174990   4.5878876
PRIMCOORD
     4  1
Fe      0.0000002   0.0000000   4.8544439
Fe      0.0000001   0.0000000   2.0273875
Fe      0.0000004   0.0000000  11.7362754
Fe      0.0000003   0.0000000   8.9092190
