CRYSTAL
PRIMVEC
   4.6837001   0.0000000   0.0000000
   0.0000000   3.4226000   0.0000000
  -0.8500275   0.0000000   5.0578693
CONVVEC
   4.6837001   0.0000000   0.0000000
   0.0000000   3.4226000   0.0000000
  -0.8500275   0.0000000   5.0578693
PRIMCOORD
     4  1
Cu      1.1709250   0.8556500   0.0000000
Cu      3.5127751   2.5669500   0.0000000
Cu      3.0877613   0.8556500   2.5289347
Cu      0.7459113   2.5669500   2.5289347
