CRYSTAL
PRIMVEC
   4.4925704   0.0000000   0.0000000
   0.0000000   4.4925704   0.0000000
   0.0000000   0.0000000  14.5563602
CONVVEC
   4.4925704   0.0000000   0.0000000
   0.0000000   4.4925704   0.0000000
   0.0000000   0.0000000  14.5563602
PRIMCOORD
     4  1
Mn      0.0000000   2.2462852   3.6390901
Mn      2.2462852   0.0000000   3.6390901
Mn      2.2462852   0.0000000  10.9172702
Mn      0.0000000   2.2462852  10.9172702
