CRYSTAL
PRIMVEC
   4.3099999   0.0000000   0.0000000
   0.0000000   4.3099999   0.0000000
   0.0000000   0.0000000  10.8500004
CONVVEC
   4.3099999   0.0000000   0.0000000
   0.0000000   4.3099999   0.0000000
   0.0000000   0.0000000  10.8500004
PRIMCOORD
     2  1
Mn      0.0000000   0.0000000   0.0000000
Mn      2.1550000   2.1550000   0.0000000
