CRYSTAL
PRIMVEC
   2.0109111   0.0000000   5.7999999
  -1.0054554   1.7415000   5.7999999
  -1.0054554  -1.7415000   5.7999999
CONVVEC
   2.0109111   0.0000000   5.7999999
  -1.0054554   1.7415000   5.7999999
  -1.0054554  -1.7415000   5.7999999
PRIMCOORD
     1  1
Ni      0.0000000   0.0000000   0.0000000
