CRYSTAL
PRIMVEC
   2.8852120  -4.9964341   0.0000000
   2.8852120   4.9964341   0.0000000
  -1.9294688   0.0000000   6.5826712
CONVVEC
   2.8852120  -4.9964341   0.0000000
   2.8852120   4.9964341   0.0000000
  -1.9294688   0.0000000   6.5826712
PRIMCOORD
     2  1
Co      1.9204776  -1.6654784   3.2913356
Co      1.9204776   1.6654784   3.2913356
