CRYSTAL
PRIMVEC
   5.5500000   0.0000000   0.0000000
   0.0000000   5.5609962   0.0000000
   0.0000000   0.0000000   7.8401747
CONVVEC
   5.5500000   0.0000000   0.0000000
   0.0000000   5.5609962   0.0000000
   0.0000000   0.0000000   7.8401747
PRIMCOORD
     4  1
Fe      2.7750000   0.0000000   0.0000000
Fe      0.0000000   2.7804981   3.9200874
Fe      2.7750000   0.0000000   3.9200874
Fe      0.0000000   2.7804981   0.0000000
