CRYSTAL
PRIMVEC
   3.5940038  -2.0749991   0.0000000
   0.0000000   4.1499981   0.0000000
   0.0000000   0.0000000   6.7029213
CONVVEC
   3.5940038  -2.0749991   0.0000000
   0.0000000   4.1499981   0.0000000
   0.0000000   0.0000000   6.7029213
PRIMCOORD
     2  1
Mn      0.0000000   0.0000000   0.0000000
Mn      0.0000000   0.0000000   3.3514607
