CRYSTAL
PRIMVEC
   3.6947884   0.0000000   6.9054974
  -1.8473939   3.1997804   6.9054974
  -1.8473939  -3.1997804   6.9054974
CONVVEC
   3.6947884   0.0000000   6.9054974
  -1.8473939   3.1997804   6.9054974
  -1.8473939  -3.1997804   6.9054974
PRIMCOORD
     2  1
Mn      0.0000001   0.0000000   3.4724383
Mn      0.0000005   0.0000000  17.2440538
