CRYSTAL
PRIMVEC
   4.5000013   0.0000000   0.0000000
   0.0000000   4.5000013   0.0000000
   0.0000000   0.0000000  11.0800030
CONVVEC
   4.5000013   0.0000000   0.0000000
   0.0000000   4.5000013   0.0000000
   0.0000000   0.0000000  11.0800030
PRIMCOORD
     2  1
Mn      0.0000000   0.0000000   0.0000000
Mn      2.2500006   2.2500006   0.0000000
