CRYSTAL
PRIMVEC
  -2.7785499   2.7785499   3.9565499
   2.7785499  -2.7785499   3.9565499
   2.7785499   2.7785499  -3.9565499
CONVVEC
  -2.7785499   2.7785499   3.9565499
   2.7785499  -2.7785499   3.9565499
   2.7785499   2.7785499  -3.9565499
PRIMCOORD
     1  1
Ni      0.0000000   0.0000000   0.0000000
