CRYSTAL
PRIMVEC
   7.1599999   0.0000000   0.0000000
  -3.5799999   6.2007418   0.0000000
   0.0000000   0.0000000  17.8299999
CONVVEC
   7.1599999   0.0000000   0.0000000
  -3.5799999   6.2007418   0.0000000
   0.0000000   0.0000000  17.8299999
PRIMCOORD
     6  1
Mn     -0.0000004   4.1338280   2.8581490
Mn      3.5800003   2.0669137  14.9718509
Mn      3.5800003   2.0669137  11.7731489
Mn     -0.0000004   4.1338280   6.0568510
Mn      0.0000000   0.0000000   0.0000000
Mn      0.0000000   0.0000000   8.9150000
