CRYSTAL
PRIMVEC
   5.5879980   0.0000000   0.0000000
   0.0000000   7.5955053   0.0000000
   0.0000000   0.0000000   5.2745812
CONVVEC
   5.5879980   0.0000000   0.0000000
   0.0000000   7.5955053   0.0000000
   0.0000000   0.0000000   5.2745812
PRIMCOORD
     4  1
Fe      2.7939990   0.0000000   0.0000000
Fe      0.0000000   3.7977526   2.6372906
Fe      0.0000000   0.0000000   2.6372906
Fe      2.7939990   3.7977526   0.0000000
