CRYSTAL
PRIMVEC
   4.2630000   0.0000000   0.0000000
   0.0000000   4.2630000   0.0000000
   0.0000000   0.0000000   4.2630000
CONVVEC
   4.2630000   0.0000000   0.0000000
   0.0000000   4.2630000   0.0000000
   0.0000000   0.0000000   4.2630000
PRIMCOORD
     4  1
Co      0.0000000   0.0000000   0.0000000
Co      0.0000000   2.1315000   2.1315000
Co      2.1315000   0.0000000   2.1315000
Co      2.1315000   2.1315000   0.0000000
