CRYSTAL
PRIMVEC
   2.8642337   0.0000000   4.5332722
  -1.4321166   2.4804990   4.5332722
  -1.4321166  -2.4804990   4.5332722
CONVVEC
   2.8642337   0.0000000   4.5332722
  -1.4321166   2.4804990   4.5332722
  -1.4321166  -2.4804990   4.5332722
PRIMCOORD
     4  1
Cr      0.0000002   0.0000000   4.7259362
Cr      0.0000001   0.0000000   2.0739720
Cr      0.0000004   0.0000000  11.5258445
Cr      0.0000003   0.0000000   8.8738803
