CRYSTAL
PRIMVEC
   2.2255000   2.2255000   4.4510000
   2.2255000   4.4510000   2.2255000
   4.4510000   2.2255000   2.2255000
CONVVEC
   2.2255000   2.2255000   4.4510000
   2.2255000   4.4510000   2.2255000
   4.4510000   2.2255000   2.2255000
PRIMCOORD
     2  1
Mn      0.0000000   0.0000000   0.0000000
Mn      4.4510000   4.4510000   4.4510000
