CRYSTAL
PRIMVEC
   4.8569981   0.0000000   0.0000000
   0.0000000   4.8569981   0.0000000
   0.0000000   0.0000000   3.3084540
CONVVEC
   4.8569981   0.0000000   0.0000000
   0.0000000   4.8569981   0.0000000
   0.0000000   0.0000000   3.3084540
PRIMCOORD
     2  1
Mn      0.0000000   0.0000000   0.0000000
Mn      2.4284990   2.4284990   1.6542270
