CRYSTAL
PRIMVEC
   5.4820002   0.0000000   0.0000000
   0.0000000   5.5780004   0.0000000
   0.0000000   0.0000000   7.7860004
CONVVEC
   5.4820002   0.0000000   0.0000000
   0.0000000   5.5780004   0.0000000
   0.0000000   0.0000000   7.7860004
PRIMCOORD
     4  1
Fe      0.0000000   2.7890002   0.0000000
Fe      0.0000000   2.7890002   3.8930002
Fe      2.7410001   0.0000000   3.8930002
Fe      2.7410001   0.0000000   0.0000000
