CRYSTAL
PRIMVEC
   5.3769135   0.0000000   0.0000000
   0.0000000  19.5200128   0.0000000
   0.0000000   0.0000000   5.5559975
CONVVEC
   5.3769135   0.0000000   0.0000000
   0.0000000  19.5200128   0.0000000
   0.0000000   0.0000000   5.5559975
PRIMCOORD
     8  1
44      1.3579744  11.6867956   1.3855569
44      1.3304823  17.5932236   4.1635556
44      4.0189390  11.6867956   4.1635556
44      4.0464312  17.5932236   1.3855569
44      4.0464312   1.9267873   1.3855569
44      4.0189390   7.8332191   4.1635556
44      1.3304823   1.9267873   4.1635556
44      1.3579744   7.8332191   1.3855569
