CRYSTAL
PRIMVEC
   4.2150000   0.0000000   0.0000000
   0.0000000   4.2150000   0.0000000
   0.0000000   0.0000000  13.7700000
CONVVEC
   4.2150000   0.0000000   0.0000000
   0.0000000   4.2150000   0.0000000
   0.0000000   0.0000000  13.7700000
PRIMCOORD
     2  1
Mn      0.0000000   0.0000000   0.0000000
Mn      2.1075000   2.1075000   6.8850000
