CRYSTAL
PRIMVEC
   5.3245839  -3.0741500   0.0000000
   0.0000000   6.1483000   0.0000000
   0.0000000   0.0000000  11.4431999
CONVVEC
   5.3245839  -3.0741500   0.0000000
   0.0000000   6.1483000   0.0000000
   0.0000000   0.0000000  11.4431999
PRIMCOORD
     6  1
Mn      1.7198406  -0.9929504   0.0000000
Mn      3.6047433  -2.0811995   5.7215999
Mn      0.0000000   4.1623991   5.7215999
Mn      1.7198406   0.9929504   5.7215999
Mn      0.0000000   1.9859009   0.0000000
Mn      3.6047433   2.0811995   0.0000000
