CRYSTAL
PRIMVEC
   5.8400001   0.0000000   0.0000000
  -2.9200001   5.0575885   0.0000000
   0.0000000   0.0000000  14.3079996
CONVVEC
   5.8400001   0.0000000   0.0000000
  -2.9200001   5.0575885   0.0000000
   0.0000000   0.0000000  14.3079996
PRIMCOORD
     6  1
Ni      0.0000000   0.0000000   0.0000000
Ni      0.0000000   0.0000000   7.1539998
Ni     -0.0000003   3.3717258  12.0945521
Ni      2.9199998   1.6858627   2.2134475
Ni      2.9199998   1.6858627   4.9405523
Ni     -0.0000003   3.3717258   9.3674473
