CRYSTAL
PRIMVEC
   3.2172844  -1.8575000   0.0000000
   0.0000000   3.7150000   0.0000000
   0.0000000   0.0000000  18.3000000
CONVVEC
   3.2172844  -1.8575000   0.0000000
   0.0000000   3.7150000   0.0000000
   0.0000000   0.0000000  18.3000000
PRIMCOORD
     3  1
Ni      0.0000000   0.0000000   0.0000000
Ni      1.0724280   1.8575002  12.2000006
Ni      2.1448564  -0.0000002   6.0999994
