CRYSTAL
PRIMVEC
   5.5887000   0.0000000   0.0000000
   0.0000000   7.7619001   0.0000000
   0.0000000   0.0000000   5.4488998
CONVVEC
   5.5887000   0.0000000   0.0000000
   0.0000000   7.7619001   0.0000000
   0.0000000   0.0000000   5.4488998
PRIMCOORD
     4  1
Fe      0.0000000   0.0000000   2.7244499
Fe      2.7943500   3.8809500   0.0000000
Fe      2.7943500   0.0000000   0.0000000
Fe      0.0000000   3.8809500   2.7244499
