CRYSTAL
PRIMVEC
   2.8549972   0.0000000   7.8700001
  -1.4274984   2.4725000   7.8700001
  -1.4274984  -2.4725000   7.8700001
CONVVEC
   2.8549972   0.0000000   7.8700001
  -1.4274984   2.4725000   7.8700001
  -1.4274984  -2.4725000   7.8700001
PRIMCOORD
     2  1
Ni      0.0000001   0.0000000   3.9428701
Ni      0.0000004   0.0000000  19.6671303
