CRYSTAL
PRIMVEC
   4.3099999   0.0000000   0.0000000
   0.0000000   4.3099999   0.0000000
   0.0000000   0.0000000  10.8500004
CONVVEC
   4.3099999   0.0000000   0.0000000
   0.0000000   4.3099999   0.0000000
   0.0000000   0.0000000  10.8500004
PRIMCOORD
     2  1
Mn      3.2325000   1.0775000   0.0000000
Mn      1.0775000   3.2325000   0.0000000
