CRYSTAL
PRIMVEC
   4.0710000   0.0000000   0.0000000
   0.0000000   4.0710000   0.0000000
   0.0000000   0.0000000   4.0710000
CONVVEC
   4.0710000   0.0000000   0.0000000
   0.0000000   4.0710000   0.0000000
   0.0000000   0.0000000   4.0710000
PRIMCOORD
     1  1
Co      2.0355000   2.0355000   2.0355000
