CRYSTAL
PRIMVEC
   5.5554800   0.0000000   0.0000000
   0.0000000   7.8486799   0.0000000
   0.0000000   0.0000000   5.5534900
CONVVEC
   5.5554800   0.0000000   0.0000000
   0.0000000   7.8486799   0.0000000
   0.0000000   0.0000000   5.5534900
PRIMCOORD
     4  1
V       2.7777400   0.0000000   0.0000000
V       0.0000000   3.9243399   2.7767450
V       0.0000000   0.0000000   2.7767450
V       2.7777400   3.9243399   0.0000000
