CRYSTAL
PRIMVEC
   4.3586595   0.0000000   0.0000000
   0.0000000   4.3586595   0.0000000
   0.0000000   0.0000000  13.4870567
CONVVEC
   4.3586595   0.0000000   0.0000000
   0.0000000   4.3586595   0.0000000
   0.0000000   0.0000000  13.4870567
PRIMCOORD
     4  1
25      0.0000000   2.1793297   3.3717642
25      2.1793297   0.0000000  10.1152925
25      2.1793297   0.0000000   3.3717642
25      0.0000000   2.1793297  10.1152925
